A 4RV 705
  xed2sdf           3D
 
 34 36  0  0  0  0  0  0  0  0999 V2000
  -22.5830    9.3550   -6.7420 C   0  0  0  0  0  0  0  0  0  0  0  0
  -23.2120    7.9630   -4.9900 C   0  0  0  0  0  0  0  0  0  0  0  0
  -22.2320    8.5140   -4.1430 C   0  0  0  0  0  0  0  0  0  0  0  0
  -22.1080    8.0350   -2.7350 C   0  0  0  0  0  0  0  0  0  0  0  0
  -22.9880    8.0250   -0.4820 C   0  0  0  0  0  0  0  0  0  0  0  0
  -19.8600    6.0020   -0.5610 C   0  0  0  0  0  0  0  0  0  0  0  0
  -18.9190    5.6570   -1.5550 C   0  0  0  0  0  0  0  0  0  0  0  0
  -20.3380   10.2270   -3.8050 C   0  0  0  0  0  0  0  0  0  0  0  0
  -21.4080    9.5540   -4.6480 C   0  0  0  0  0  0  0  0  0  0  0  0
  -21.6020    9.9700   -5.9680 C   0  0  0  0  0  0  0  0  0  0  0  0
  -23.3410    8.3880   -6.2370 N   0  0  0  0  0  0  0  0  0  0  0  0
  -23.0690    8.4210   -1.8010 C   0  0  0  0  0  0  0  0  0  0  0  0
  -21.9540    7.2310   -0.0600 C   0  0  0  0  0  0  0  0  0  0  0  0
  -20.9580    6.8180   -0.9600 C   0  0  0  0  0  0  0  0  0  0  0  0
  -19.7460    5.6110    0.7560 N   0  0  0  0  0  0  0  0  0  0  0  0
  -19.0890    6.0950   -2.8100 N   0  0  0  0  0  0  0  0  0  0  0  0
  -20.0760    6.8260   -3.1700 N   0  0  0  0  0  0  0  0  0  0  0  0
  -21.0340    7.2180   -2.3180 C   0  0  0  0  0  0  0  0  0  0  0  0
  -17.7130    4.8600   -1.2960 C   0  0  0  0  0  0  0  0  0  0  0  0
  -16.7710    4.7790   -2.2590 N   0  0  0  0  0  0  0  0  0  0  0  0
  -17.5250    4.3270   -0.2190 O   0  0  0  0  0  0  0  0  0  0  0  0
  -20.7580   10.6510   -3.0030 H   0  0  0  0  0  0  0  0  0  0  0  0
  -18.9670    5.0550    1.0470 H   0  0  0  0  0  0  0  0  0  0  0  0
  -16.9020    5.2560   -3.1280 H   0  0  0  0  0  0  0  0  0  0  0  0
  -19.6700    9.5480   -3.5020 H   0  0  0  0  0  0  0  0  0  0  0  0
  -19.8810   10.9260   -4.3560 H   0  0  0  0  0  0  0  0  0  0  0  0
  -22.7180    9.6450   -7.6890 H   0  0  0  0  0  0  0  0  0  0  0  0
  -23.8160    7.2440   -4.6470 H   0  0  0  0  0  0  0  0  0  0  0  0
  -23.6870    8.3190    0.1690 H   0  0  0  0  0  0  0  0  0  0  0  0
  -21.0410   10.7030   -6.3530 H   0  0  0  0  0  0  0  0  0  0  0  0
  -23.8330    8.9970   -2.0930 H   0  0  0  0  0  0  0  0  0  0  0  0
  -21.9080    6.9430    0.8970 H   0  0  0  0  0  0  0  0  0  0  0  0
  -20.4420    5.8830    1.4200 H   0  0  0  0  0  0  0  0  0  0  0  0
  -15.9420    4.2420   -2.1040 H   0  0  0  0  0  0  0  0  0  0  0  0
  1 10  2  0
  1 11  1  0
  2  3  1  0
  2 11  2  0
  3  4  1  0
  3  9  2  0
  4 12  2  0
  4 18  1  0
  5 12  1  0
  5 13  2  0
  6  7  2  0
  6 14  1  0
  6 15  1  0
  7 16  1  0
  7 19  1  0
  8  9  1  0
  9 10  1  0
 13 14  1  0
 14 18  2  0
 16 17  2  0
 17 18  1  0
 19 20  1  0
 19 21  2  0
  1 27  1  0
  2 28  1  0
  5 29  1  0
  8 22  1  0
  8 25  1  0
  8 26  1  0
 10 30  1  0
 12 31  1  0
 13 32  1  0
 15 23  1  0
 15 33  1  0
 20 24  1  0
 20 34  1  0
M  END
>  <Favorite_cresset>
false

>  <Protein_cresset>
4ZLZ_P

>  <MW_cresset>
279.3

>  <#Atoms_cresset>
21

>  <SlogP_cresset>
1.7

>  <TPSA_cresset>
107.8

>  <Flexibility_cresset>
0.4

>  <HBA_cresset>
6

>  <HBD_cresset>
4

>  <Rof5_cresset>
0

>  <Confs_cresset>
0

>  <Poses_cresset>
0

$$$$
